12

C   -2.195341559365677   -0.1498818836933435   -0.7851769051889391
N   -0.9723214408194492   -0.7074573286006112   -0.2512792936914982
C   0.04576645794093254   0.03685042839816369   -0.21450042733896946
N   1.2553834526074314   -0.423370318728049   0.2892475303756072
C   2.3995037015528453   0.3280814049464768   0.3789945836764884
O   3.444662973381244   -0.07880339060993724   0.8290226772813426
H   -2.9707739816504493   -0.17949849072324356   -0.01268169121539823
H   -2.1005963932499387   0.8877861177550225   -1.1458883226372296
H   -2.5455065803341843   -0.7738375949740628   -1.6137097865286412
H   0.08081783077936289   1.0808413230967806   -0.56076095199578
H   1.292042769947869   -1.3792599885456651   0.6247171977022138
H   2.266325185182785   1.3563299266974453   -0.008050831464332154
12

C   -1.9862826198544927   -0.19390882559754252   -0.9015576969423236
N   -0.8601249281960965   -0.5572763779988459   -0.06971161801935054
C   0.33730068348202424   0.04384539578962862   -0.080566236137029
N   1.319306917158189   -0.36582041377881114   0.6472773568792398
C   2.4813447958625585   0.38831060074955154   0.5188691343162846
O   3.5042759408117807   0.1647504437159838   1.1164188890422586
H   -2.8802305572740963   -0.02504713682102007   -0.29271931488608643
H   -1.7558180908426226   0.7333154603351327   -1.4338798362474858
H   -2.203195462395346   -0.9718078708982595   -1.642445304939159
H   0.40303911936953307   0.9131003774020715   -0.7540509559832604
H   -0.9332047950603106   -1.365323536477042   0.5347351503935126
H   2.419061970848328   1.2486153396484823   -0.1951318083631013