16

O   -1.8198505489484187   0.09737477744467872   0.8423840893804617
C   -1.070457900348092   0.20605245453931237   -0.36346273683660024
C   -0.22168797813982444   -1.0451645850496891   -0.6015341708330882
C   0.9063978249131553   -0.8894014840023393   0.421432896650403
C   1.2615665123414401   0.6073921304922097   0.33678658168477554
C   -0.0319493096821046   1.3152071716178728   -0.14599147629578094
H   -2.3576923016589295   -0.7032781401548008   0.7860963775599352
H   -1.7446077039447234   0.4269746642982041   -1.2043264111526215
H   -0.7945148494019713   -1.9751022596518648   -0.49883051217999325
H   0.18087534384515172   -1.0203765673830203   -1.622379985050493
H   1.7609432855987999   -1.5449430028682398   0.2271547740998064
H   0.5216172118151714   -1.1280312101969174   1.4181930828491172
H   1.6188080983477646   0.9983817057240124   1.2938105205404717
H   2.069814024096971   0.7618651367504462   -0.38710176297841614
H   -0.4197203550339748   2.03731888083053   0.5780619465501678
H   0.1415252584951047   1.8551695747364951   -1.0824297436646737
16

O   -2.4175665344201898   -0.15450254934169566   1.1638618664959102
C   -2.545924861528281   0.9150815438555523   0.41765087801695566
C   0.328400730451931   -0.719143315959175   -0.7880094852168229
C   1.0169986837824139   -0.8102459615768971   0.5914472410520394
C   1.5862644244149893   0.6058920785778054   0.3486427965448852
C   0.4922729056670053   0.8150838383915552   -0.7222783184929109
H   -2.479273389530134   -1.0079206627100867   0.6918728537885634
H   -2.717799038583997   0.5529901930720317   -0.6341971748828666
H   -0.68420617990435   -1.1303010060646905   -0.8908610191707637
H   0.9499267382720292   -1.1549514039891395   -1.5772837186143007
H   1.7268124376702674   -1.6264792842334306   0.7551516287304528
H   0.2851809694935994   -0.8053419626886947   1.406155506318718
H   1.5994722178313714   1.2968926007269   1.195815546152602
H   2.586384508778194   0.5692370185559505   -0.09600027264213748
H   -0.38557589640992906   1.3080127205243286   -0.28557571276806637
H   0.7647210881462079   1.3384650922560526   -1.6433322504505825